<?xml version="1.0" encoding="UTF-8"?>

<!-- generated on 2026-01-09 13:02:42.574198 by Eclipse SUMO osmWebWizard.py UNKNOWN
<configuration>
    <net-file value="/Users/niki/Sumo/2026-01-09-13-02-29/osm.net.xml.gz"/>
    <output-trip-file value="/Users/niki/Sumo/2026-01-09-13-02-29/osm.passenger.trips.xml"/>
    <route-file value="/Users/niki/Sumo/2026-01-09-13-02-29/osm.passenger.rou.xml"/>
    <prefix value="veh"/>
    <trip-attributes value="departLane=&quot;best&quot;"/>
    <fringe-start-attributes value="departSpeed=&quot;max&quot;"/>
    <vehicle-class value="passenger"/>
    <lanes value="True"/>
    <fringe-factor value="5"/>
    <allow-fringe.min-length value="1000.0"/>
    <edge-permission value="passenger"/>
    <via-edge-types value="highway.motorway,highway.motorway_link,highway.trunk_link,highway.primary_link,highway.secondary_link,highway.tertiary_link"/>
    <min-distance value="300.0"/>
    <min-distance.fringe value="10.0"/>
    <remove-loops value="True"/>
    <insertion-density value="7.0"/>
</configuration>
-->

<routes xmlns:xsi="http://www.w3.org/2001/XMLSchema-instance" xsi:noNamespaceSchemaLocation="http://sumo.dlr.de/xsd/routes_file.xsd">
    <vType id="veh_passenger" vClass="passenger"/>
    <trip id="veh0" depart="0.00" from="33920769#0" to="-114208222#0" departLane="best" type="veh_passenger" departSpeed="max"/>
    <trip id="veh1" depart="15.32" from="-55668395" to="-4395858#1" departLane="best" type="veh_passenger" departSpeed="max"/>
    <trip id="veh2" depart="30.65" from="41228866#0" to="3785441" departLane="best" type="veh_passenger" departSpeed="max"/>
    <trip id="veh3" depart="45.97" from="677070806" to="-150800557#1" departLane="best" type="veh_passenger" departSpeed="max"/>
    <trip id="veh4" depart="61.30" from="-41592120#2" to="14047770#0" departLane="best" type="veh_passenger" departSpeed="max"/>
    <trip id="veh5" depart="76.62" from="-114208222#2" to="-41228866#1" departLane="best" type="veh_passenger"/>
    <trip id="veh6" depart="91.94" from="4395994#4" to="-1084557094#0" departLane="best" type="veh_passenger"/>
    <trip id="veh7" depart="107.27" from="4395933#4" to="384401180" departLane="best" type="veh_passenger"/>
    <trip id="veh8" depart="122.59" from="-67139161#2" to="-38062538" departLane="best" type="veh_passenger" departSpeed="max"/>
    <trip id="veh9" depart="137.92" from="80478293#0" to="-80439756#2" departLane="best" type="veh_passenger" departSpeed="max"/>
    <trip id="veh10" depart="153.24" from="4395982#0" to="39944037" departLane="best" type="veh_passenger"/>
    <!-- <trip id="veh11" depart="168.56" from="-85418329" to="192108789#0" departLane="best" type="veh_passenger" departSpeed="max"/>
    <trip id="veh12" depart="183.89" from="4829715#0" to="32866834#0" departLane="best" type="veh_passenger" departSpeed="max"/>
    <trip id="veh13" depart="199.21" from="547144813#2" to="26143790#0" departLane="best" type="veh_passenger"/>
    <trip id="veh14" depart="214.53" from="-42239606#2" to="-548793704#1" departLane="best" type="veh_passenger"/>
    <trip id="veh15" depart="229.86" from="-1450939555" to="-4395890" departLane="best" type="veh_passenger"/>
    <trip id="veh16" depart="245.18" from="32866836" to="-80479200" departLane="best" type="veh_passenger"/>
    <trip id="veh17" depart="260.51" from="-8403822#1" to="-42293718#5" departLane="best" type="veh_passenger" departSpeed="max"/>
    <trip id="veh18" depart="275.83" from="-547144813#2" to="750249501" departLane="best" type="veh_passenger"/>
    <trip id="veh19" depart="291.15" from="-3809981#2" to="39944037" departLane="best" type="veh_passenger"/>
    <trip id="veh20" depart="306.48" from="-37747648#5" to="-915820852" departLane="best" type="veh_passenger"/>
    <trip id="veh21" depart="321.80" from="913333123" to="356748753#0" departLane="best" type="veh_passenger"/>
    <trip id="veh22" depart="337.13" from="150800558#0" to="3788405#0" departLane="best" type="veh_passenger"/>
    <trip id="veh23" depart="352.45" from="497328791" to="42293718#5" departLane="best" type="veh_passenger" departSpeed="max"/>
    <trip id="veh24" depart="367.77" from="-42239606#2" to="-1253739956" departLane="best" type="veh_passenger"/>
    <trip id="veh25" depart="383.10" from="-55668408" to="-497328791" departLane="best" type="veh_passenger" departSpeed="max"/>
    <trip id="veh26" depart="398.42" from="-41565486" to="75589201" departLane="best" type="veh_passenger" departSpeed="max"/>
    <trip id="veh27" depart="413.75" from="658163878" to="-7990021" departLane="best" type="veh_passenger"/>
    <trip id="veh28" depart="429.07" from="360319695#0" to="111286353#0" departLane="best" type="veh_passenger"/>
    <trip id="veh29" depart="444.39" from="7990021" to="1322636036#0" departLane="best" type="veh_passenger" departSpeed="max"/>
    <trip id="veh30" depart="459.72" from="-547144813#1" to="-4540420" departLane="best" type="veh_passenger"/>
    <trip id="veh31" depart="475.04" from="160963287#1" to="-4829724" departLane="best" type="veh_passenger"/>
    <trip id="veh32" depart="490.37" from="229119089" to="55668407" departLane="best" type="veh_passenger" departSpeed="max"/>
    <trip id="veh33" depart="505.69" from="1084557101" to="-4395692#1" departLane="best" type="veh_passenger"/>
    <trip id="veh34" depart="521.01" from="928725827#0" to="14047770#0" departLane="best" type="veh_passenger"/>
    <trip id="veh35" depart="536.34" from="-160963287#2" to="-1297450911" departLane="best" type="veh_passenger"/>
    <trip id="veh36" depart="551.66" from="4395858#2" to="114277935#0" departLane="best" type="veh_passenger"/>
    <trip id="veh37" depart="566.99" from="-1375832145" to="-915820852" departLane="best" type="veh_passenger" departSpeed="max"/>
    <trip id="veh38" depart="582.31" from="928725821#0" to="14047802" departLane="best" type="veh_passenger"/>
    <trip id="veh39" depart="597.63" from="80479202#1" to="547144817" departLane="best" type="veh_passenger"/>
    <trip id="veh40" depart="612.96" from="-111286353#2" to="3957139#0" departLane="best" type="veh_passenger"/>
    <trip id="veh41" depart="628.28" from="37747648#3" to="1450939556#0" departLane="best" type="veh_passenger"/>
    <trip id="veh42" depart="643.60" from="-547144813#2" to="360319693" departLane="best" type="veh_passenger"/>
    <trip id="veh43" depart="658.93" from="-26143790#1" to="1252590399" departLane="best" type="veh_passenger" departSpeed="max"/>
    <trip id="veh44" depart="674.25" from="1171441158" to="80479201#2" departLane="best" type="veh_passenger" departSpeed="max"/>
    <trip id="veh45" depart="689.58" from="658163878" to="-497328791" departLane="best" type="veh_passenger"/>
    <trip id="veh46" depart="704.90" from="1340422151" to="-384401180" departLane="best" type="veh_passenger"/>
    <trip id="veh47" depart="720.22" from="7990021" to="55668396" departLane="best" type="veh_passenger" departSpeed="max"/>
    <trip id="veh48" depart="735.55" from="29333273#0" to="-3789941" departLane="best" type="veh_passenger"/>
    <trip id="veh49" depart="750.87" from="42293718#7" to="147077493#0" departLane="best" type="veh_passenger"/>
    <trip id="veh50" depart="766.20" from="4395692#0" to="1450939552" departLane="best" type="veh_passenger" departSpeed="max"/>
    <trip id="veh51" depart="781.52" from="-1049698333#1" to="-7990023" departLane="best" type="veh_passenger"/>
    <trip id="veh52" depart="796.84" from="-114208221#1" to="67139161#2" departLane="best" type="veh_passenger" departSpeed="max"/>
    <trip id="veh53" depart="812.17" from="-55668407" to="-1342766839#1" departLane="best" type="veh_passenger" departSpeed="max"/>
    <trip id="veh54" depart="827.49" from="67139158#0" to="80448023#1" departLane="best" type="veh_passenger" departSpeed="max"/>
    <trip id="veh55" depart="842.82" from="-150800557#1" to="1340422151" departLane="best" type="veh_passenger"/>
    <trip id="veh56" depart="858.14" from="-547144813#1" to="55668396" departLane="best" type="veh_passenger"/>
    <trip id="veh57" depart="873.46" from="114208220#2" to="-42293718#7" departLane="best" type="veh_passenger"/>
    <trip id="veh58" depart="888.79" from="14047779#0" to="39944037" departLane="best" type="veh_passenger"/>
    <trip id="veh59" depart="904.11" from="-39944037" to="-7990021" departLane="best" type="veh_passenger" departSpeed="max"/>
    <trip id="veh60" depart="919.44" from="928725821#0" to="37692282#0" departLane="best" type="veh_passenger"/>
    <trip id="veh61" depart="934.76" from="1171441158" to="14047774" departLane="best" type="veh_passenger" departSpeed="max"/>
    <trip id="veh62" depart="950.08" from="-67139161#2" to="293281654" departLane="best" type="veh_passenger" departSpeed="max"/>
    <trip id="veh63" depart="965.41" from="-42293718#1" to="-4395830" departLane="best" type="veh_passenger"/>
    <trip id="veh64" depart="980.73" from="-42239606#2" to="55668408" departLane="best" type="veh_passenger"/>
    <trip id="veh65" depart="996.06" from="-4395830" to="37747648#0" departLane="best" type="veh_passenger"/>
    <trip id="veh66" depart="1011.38" from="-41565486" to="-372245389#3" departLane="best" type="veh_passenger" departSpeed="max"/>
    <trip id="veh67" depart="1026.70" from="7990024" to="24450825#0" departLane="best" type="veh_passenger" departSpeed="max"/>
    <trip id="veh68" depart="1042.03" from="4395982#0" to="-3957136#3" departLane="best" type="veh_passenger"/>
    <trip id="veh69" depart="1057.35" from="-233718298#1" to="12341239#0" departLane="best" type="veh_passenger" departSpeed="max"/>
    <trip id="veh70" depart="1072.67" from="114208220#2" to="1322636036#0" departLane="best" type="veh_passenger"/>
    <trip id="veh71" depart="1088.00" from="83806428#0" to="-162745567" departLane="best" type="veh_passenger"/>
    <trip id="veh72" depart="1103.32" from="1097499568" to="-80448023#4" departLane="best" type="veh_passenger"/>
    <trip id="veh73" depart="1118.65" from="-4395933#4" to="67139161#2" departLane="best" type="veh_passenger"/>
    <trip id="veh74" depart="1133.97" from="1171441158" to="547144817" departLane="best" type="veh_passenger" departSpeed="max"/>
    <trip id="veh75" depart="1149.29" from="1450939556#0" to="-132759854#1" departLane="best" type="veh_passenger"/>
    <trip id="veh76" depart="1164.62" from="80479202#0" to="67139161#2" departLane="best" type="veh_passenger"/>
    <trip id="veh77" depart="1179.94" from="49961188#0" to="-3809980" departLane="best" type="veh_passenger"/>
    <trip id="veh78" depart="1195.27" from="-547144813#1" to="4385874#1" departLane="best" type="veh_passenger"/>
    <trip id="veh79" depart="1210.59" from="1209617265" to="114277935#0" departLane="best" type="veh_passenger"/>
    <trip id="veh80" depart="1225.91" from="80478293#0" to="928725821#0" departLane="best" type="veh_passenger" departSpeed="max"/>
    <trip id="veh81" depart="1241.24" from="150800557#0" to="3957127" departLane="best" type="veh_passenger"/>
    <trip id="veh82" depart="1256.56" from="80479202#0" to="26143790#0" departLane="best" type="veh_passenger"/>
    <trip id="veh83" depart="1271.89" from="14047802" to="41592118" departLane="best" type="veh_passenger"/>
    <trip id="veh84" depart="1287.21" from="-1342766839#1" to="293281653#0" departLane="best" type="veh_passenger"/>
    <trip id="veh85" depart="1302.53" from="1340422158" to="529166764" departLane="best" type="veh_passenger"/>
    <trip id="veh86" depart="1317.86" from="-37746962#1" to="83806426#0" departLane="best" type="veh_passenger"/>
    <trip id="veh87" depart="1333.18" from="233718298#0" to="3785441" departLane="best" type="veh_passenger" departSpeed="max"/>
    <trip id="veh88" depart="1348.51" from="-42293718#6" to="-317183891#0" departLane="best" type="veh_passenger"/>
    <trip id="veh89" depart="1363.83" from="673136293" to="-4540420" departLane="best" type="veh_passenger"/>
    <trip id="veh90" depart="1379.15" from="233718298#0" to="32866834#0" departLane="best" type="veh_passenger" departSpeed="max"/>
    <trip id="veh91" depart="1394.48" from="1132284993" to="288026472#0" departLane="best" type="veh_passenger"/>
    <trip id="veh92" depart="1409.80" from="135583247" to="717822540" departLane="best" type="veh_passenger" departSpeed="max"/>
    <trip id="veh93" depart="1425.13" from="37747133#0" to="-67139158#2" departLane="best" type="veh_passenger"/>
    <trip id="veh94" depart="1440.45" from="-55668408" to="41592118" departLane="best" type="veh_passenger" departSpeed="max"/>
    <trip id="veh95" depart="1455.77" from="928725827#0" to="928725821#0" departLane="best" type="veh_passenger"/>
    <trip id="veh96" depart="1471.10" from="-547144813#1" to="717822540" departLane="best" type="veh_passenger"/>
    <trip id="veh97" depart="1486.42" from="67139158#0" to="55668400" departLane="best" type="veh_passenger" departSpeed="max"/>
    <trip id="veh98" depart="1501.74" from="-8403822#1" to="-38062538" departLane="best" type="veh_passenger" departSpeed="max"/>
    <trip id="veh99" depart="1517.07" from="4908204" to="39117800#0" departLane="best" type="veh_passenger"/>
    <trip id="veh100" depart="1532.39" from="310196058" to="85418338" departLane="best" type="veh_passenger"/>
    <trip id="veh101" depart="1547.72" from="360319693" to="-1084557094#1" departLane="best" type="veh_passenger"/>
    <trip id="veh102" depart="1563.04" from="4540261" to="-67139158#2" departLane="best" type="veh_passenger"/>
    <trip id="veh103" depart="1578.36" from="37692282#6" to="750249501" departLane="best" type="veh_passenger"/>
    <trip id="veh104" depart="1593.69" from="384401183" to="-42239606#2" departLane="best" type="veh_passenger"/>
    <trip id="veh105" depart="1609.01" from="319624628#0" to="-497328791" departLane="best" type="veh_passenger"/>
    <trip id="veh106" depart="1624.34" from="-1061460108#1" to="42239606#1" departLane="best" type="veh_passenger"/>
    <trip id="veh107" depart="1639.66" from="33920769#0" to="-4829724" departLane="best" type="veh_passenger" departSpeed="max"/>
    <trip id="veh108" depart="1654.98" from="41228866#0" to="192108787#0" departLane="best" type="veh_passenger" departSpeed="max"/>
    <trip id="veh109" depart="1670.31" from="-14047802" to="55668400" departLane="best" type="veh_passenger"/>
    <trip id="veh110" depart="1685.63" from="677070806" to="150800558#0" departLane="best" type="veh_passenger" departSpeed="max"/>
    <trip id="veh111" depart="1700.96" from="4908204" to="288026472#0" departLane="best" type="veh_passenger"/>
    <trip id="veh112" depart="1716.28" from="4395890" to="547144817" departLane="best" type="veh_passenger" departSpeed="max"/>
    <trip id="veh113" depart="1731.60" from="677070806" to="-42293718#5" departLane="best" type="veh_passenger" departSpeed="max"/>
    <trip id="veh114" depart="1746.93" from="-4395933#3" to="-233718298#0" departLane="best" type="veh_passenger"/>
    <trip id="veh115" depart="1762.25" from="4395693" to="55668404#0" departLane="best" type="veh_passenger"/>
    <trip id="veh116" depart="1777.58" from="1103189119" to="32866834#0" departLane="best" type="veh_passenger" departSpeed="max"/>
    <trip id="veh117" depart="1792.90" from="547766102" to="85418329" departLane="best" type="veh_passenger"/>
    <trip id="veh118" depart="1808.22" from="4396159" to="55668400" departLane="best" type="veh_passenger"/>
    <trip id="veh119" depart="1823.55" from="-114208222#0" to="39944039#0" departLane="best" type="veh_passenger"/>
    <trip id="veh120" depart="1838.87" from="4395933#2" to="55668395" departLane="best" type="veh_passenger"/>
    <trip id="veh121" depart="1854.20" from="4396159" to="-497328791" departLane="best" type="veh_passenger"/>
    <trip id="veh122" depart="1869.52" from="4395830" to="-233718298#0" departLane="best" type="veh_passenger"/>
    <trip id="veh123" depart="1884.84" from="55668404#0" to="529166768#0" departLane="best" type="veh_passenger"/>
    <trip id="veh124" depart="1900.17" from="-41592120#2" to="4396159" departLane="best" type="veh_passenger" departSpeed="max"/>
    <trip id="veh125" depart="1915.49" from="1247827953#0" to="-673136293" departLane="best" type="veh_passenger"/>
    <trip id="veh126" depart="1930.81" from="-114208221#1" to="-41228866#1" departLane="best" type="veh_passenger" departSpeed="max"/>
    <trip id="veh127" depart="1946.14" from="-658163878" to="55668395" departLane="best" type="veh_passenger" departSpeed="max"/>
    <trip id="veh128" depart="1961.46" from="33920769#0" to="112410779#0" departLane="best" type="veh_passenger" departSpeed="max"/>
    <trip id="veh129" depart="1976.79" from="80479196" to="-497328791" departLane="best" type="veh_passenger"/>
    <trip id="veh130" depart="1992.11" from="3957127" to="-7990021" departLane="best" type="veh_passenger"/>
    <trip id="veh131" depart="2007.43" from="293281653#0" to="14047770#0" departLane="best" type="veh_passenger"/>
    <trip id="veh132" depart="2022.76" from="-85418338" to="26143790#0" departLane="best" type="veh_passenger" departSpeed="max"/>
    <trip id="veh133" depart="2038.08" from="-4396161#1" to="3936651#0" departLane="best" type="veh_passenger"/>
    <trip id="veh134" depart="2053.41" from="-1049698333#3" to="67139161#2" departLane="best" type="veh_passenger"/>
    <trip id="veh135" depart="2068.73" from="41228866#0" to="37747648#3" departLane="best" type="veh_passenger" departSpeed="max"/>
    <trip id="veh136" depart="2084.05" from="-83806426#5" to="-13904675" departLane="best" type="veh_passenger"/>
    <trip id="veh137" depart="2099.38" from="37692282#6" to="-7990024" departLane="best" type="veh_passenger"/>
    <trip id="veh138" depart="2114.70" from="-55668408" to="52288972#1" departLane="best" type="veh_passenger" departSpeed="max"/>
    <trip id="veh139" depart="2130.03" from="384401184#0" to="-67139158#2" departLane="best" type="veh_passenger"/>
    <trip id="veh140" depart="2145.35" from="-55668407" to="114208220#2" departLane="best" type="veh_passenger" departSpeed="max"/>
    <trip id="veh141" depart="2160.67" from="1097499568" to="-67139158#2" departLane="best" type="veh_passenger"/>
    <trip id="veh142" depart="2176.00" from="-29333723#1" to="114208223#0" departLane="best" type="veh_passenger"/>
    <trip id="veh143" depart="2191.32" from="80448023#1" to="3785441" departLane="best" type="veh_passenger"/>
    <trip id="veh144" depart="2206.65" from="677070806" to="32866834#0" departLane="best" type="veh_passenger" departSpeed="max"/>
    <trip id="veh145" depart="2221.97" from="-55668406" to="160963287#1" departLane="best" type="veh_passenger" departSpeed="max"/>
    <trip id="veh146" depart="2237.29" from="114277935#0" to="26143790#0" departLane="best" type="veh_passenger"/>
    <trip id="veh147" depart="2252.62" from="360319693" to="1322636036#0" departLane="best" type="veh_passenger"/>
    <trip id="veh148" depart="2267.94" from="1171441158" to="-4395692#1" departLane="best" type="veh_passenger" departSpeed="max"/>
    <trip id="veh149" depart="2283.27" from="4395890" to="-3809980" departLane="best" type="veh_passenger" departSpeed="max"/>
    <trip id="veh150" depart="2298.59" from="-150800557#1" to="14047774" departLane="best" type="veh_passenger"/>
    <trip id="veh151" depart="2313.91" from="319624628#0" to="-7990024" departLane="best" type="veh_passenger"/>
    <trip id="veh152" depart="2329.24" from="4540420" to="41592118" departLane="best" type="veh_passenger"/>
    <trip id="veh153" depart="2344.56" from="37747137#0" to="-4395858#5" departLane="best" type="veh_passenger"/>
    <trip id="veh154" depart="2359.88" from="-39944037" to="-1132284993" departLane="best" type="veh_passenger" departSpeed="max"/>
    <trip id="veh155" depart="2375.21" from="-4395858#7" to="1322636039#1" departLane="best" type="veh_passenger"/>
    <trip id="veh156" depart="2390.53" from="49961188#0" to="-13904675" departLane="best" type="veh_passenger"/>
    <trip id="veh157" depart="2405.86" from="-3957136#3" to="3818568#3" departLane="best" type="veh_passenger"/>
    <trip id="veh158" depart="2421.18" from="1323556065" to="-4396161#1" departLane="best" type="veh_passenger"/>
    <trip id="veh159" depart="2436.50" from="360319695#0" to="-1084557094#0" departLane="best" type="veh_passenger"/>
    <trip id="veh160" depart="2451.83" from="-233718299" to="1170418373" departLane="best" type="veh_passenger" departSpeed="max"/>
    <trip id="veh161" depart="2467.15" from="135583247" to="-132759854#1" departLane="best" type="veh_passenger" departSpeed="max"/>
    <trip id="veh162" depart="2482.48" from="-4395933#3" to="52288972#1" departLane="best" type="veh_passenger"/>
    <trip id="veh163" depart="2497.80" from="1211959043" to="4395858#1" departLane="best" type="veh_passenger"/>
    <trip id="veh164" depart="2513.12" from="37746962#0" to="85418338" departLane="best" type="veh_passenger"/>
    <trip id="veh165" depart="2528.45" from="233718298#0" to="80479198" departLane="best" type="veh_passenger" departSpeed="max"/>
    <trip id="veh166" depart="2543.77" from="677070806" to="317183891#1" departLane="best" type="veh_passenger" departSpeed="max"/>
    <trip id="veh167" depart="2559.10" from="384401184#0" to="1384714157" departLane="best" type="veh_passenger"/>
    <trip id="veh168" depart="2574.42" from="4829715#0" to="160963287#1" departLane="best" type="veh_passenger" departSpeed="max"/>
    <trip id="veh169" depart="2589.74" from="677070806" to="41565486" departLane="best" type="veh_passenger" departSpeed="max"/>
    <trip id="veh170" depart="2605.07" from="4385874#1" to="14047784" departLane="best" type="veh_passenger"/>
    <trip id="veh171" depart="2620.39" from="-548793704#1" to="-7990022" departLane="best" type="veh_passenger"/>
    <trip id="veh172" depart="2635.72" from="14047779#0" to="-37746962#1" departLane="best" type="veh_passenger"/>
    <trip id="veh173" depart="2651.04" from="112410779#1" to="-42293718#2" departLane="best" type="veh_passenger"/>
    <trip id="veh174" depart="2666.36" from="1132284993" to="55668408" departLane="best" type="veh_passenger"/>
    <trip id="veh175" depart="2681.69" from="229119089" to="3818568#0" departLane="best" type="veh_passenger" departSpeed="max"/>
    <trip id="veh176" depart="2697.01" from="-80479198" to="41592118" departLane="best" type="veh_passenger"/>
    <trip id="veh177" depart="2712.34" from="1171441158" to="-114208262#1" departLane="best" type="veh_passenger" departSpeed="max"/>
    <trip id="veh178" depart="2727.66" from="-67139161#2" to="3785441" departLane="best" type="veh_passenger" departSpeed="max"/>
    <trip id="veh179" depart="2742.98" from="1103189119" to="-3809980" departLane="best" type="veh_passenger" departSpeed="max"/>
    <trip id="veh180" depart="2758.31" from="317027067" to="-114208222#2" departLane="best" type="veh_passenger" departSpeed="max"/>
    <trip id="veh181" depart="2773.63" from="1049698333#2" to="233718299" departLane="best" type="veh_passenger"/>
    <trip id="veh182" depart="2788.95" from="-114208222#2" to="360319693" departLane="best" type="veh_passenger"/>
    <trip id="veh183" depart="2804.28" from="-132759854#1" to="-915820852" departLane="best" type="veh_passenger"/>
    <trip id="veh184" depart="2819.60" from="42293718#6" to="-915820852" departLane="best" type="veh_passenger"/>
    <trip id="veh185" depart="2834.93" from="42239606#0" to="4908204" departLane="best" type="veh_passenger"/>
    <trip id="veh186" depart="2850.25" from="-4395994#3" to="-1450939556#1" departLane="best" type="veh_passenger"/>
    <trip id="veh187" depart="2865.57" from="-114208221#1" to="147077493#0" departLane="best" type="veh_passenger" departSpeed="max"/>
    <trip id="veh188" depart="2880.90" from="929034494" to="-80450010" departLane="best" type="veh_passenger"/>
    <trip id="veh189" depart="2896.22" from="356748753#0" to="41592118" departLane="best" type="veh_passenger"/>
    <trip id="veh190" depart="2911.55" from="80450010" to="-42239605#1" departLane="best" type="veh_passenger" departSpeed="max"/>
    <trip id="veh191" depart="2926.87" from="-114208221#1" to="-3789941" departLane="best" type="veh_passenger" departSpeed="max"/>
    <trip id="veh192" depart="2942.19" from="-29333273#2" to="37747648#3" departLane="best" type="veh_passenger"/>
    <trip id="veh193" depart="2957.52" from="162745567" to="-4395692#1" departLane="best" type="veh_passenger" departSpeed="max"/>
    <trip id="veh194" depart="2972.84" from="38098902#2" to="42239605#1" departLane="best" type="veh_passenger"/>
    <trip id="veh195" depart="2988.17" from="-38098902#3" to="317183891#0" departLane="best" type="veh_passenger"/>
    <trip id="veh196" depart="3003.49" from="41565485" to="-29333273#2" departLane="best" type="veh_passenger" departSpeed="max"/>
    <trip id="veh197" depart="3018.81" from="4825365" to="83806426#2" departLane="best" type="veh_passenger" departSpeed="max"/>
    <trip id="veh198" depart="3034.14" from="-24450825#0" to="-114208222#0" departLane="best" type="veh_passenger"/>
    <trip id="veh199" depart="3049.46" from="-55668408" to="3785441" departLane="best" type="veh_passenger" departSpeed="max"/>
    <trip id="veh200" depart="3064.79" from="-233718299" to="42293718#0" departLane="best" type="veh_passenger" departSpeed="max"/>
    <trip id="veh201" depart="3080.11" from="114208262#0" to="-80479202#1" departLane="best" type="veh_passenger"/>
    <trip id="veh202" depart="3095.43" from="1340565757" to="-80450007" departLane="best" type="veh_passenger"/>
    <trip id="veh203" depart="3110.76" from="49961188#0" to="4486557" departLane="best" type="veh_passenger"/>
    <trip id="veh204" depart="3126.08" from="-233718299" to="83806426#0" departLane="best" type="veh_passenger" departSpeed="max"/>
    <trip id="veh205" depart="3141.41" from="32866836" to="4540420" departLane="best" type="veh_passenger"/>
    <trip id="veh206" depart="3156.73" from="3809981#0" to="1252590399" departLane="best" type="veh_passenger"/>
    <trip id="veh207" depart="3172.05" from="3957139#0" to="83806426#4" departLane="best" type="veh_passenger"/>
    <trip id="veh208" depart="3187.38" from="-547766102" to="4395933#3" departLane="best" type="veh_passenger"/>
    <trip id="veh209" depart="3202.70" from="-547144817" to="529166764" departLane="best" type="veh_passenger"/>
    <trip id="veh210" depart="3218.02" from="1252590403" to="317183891#1" departLane="best" type="veh_passenger"/>
    <trip id="veh211" depart="3233.35" from="-85418329" to="-114208262#1" departLane="best" type="veh_passenger" departSpeed="max"/>
    <trip id="veh212" depart="3248.67" from="-41565486" to="4395700#0" departLane="best" type="veh_passenger" departSpeed="max"/>
    <trip id="veh213" depart="3264.00" from="-67139161#2" to="55668400" departLane="best" type="veh_passenger" departSpeed="max"/>
    <trip id="veh214" depart="3279.32" from="-1090523815" to="80479196" departLane="best" type="veh_passenger"/>
    <trip id="veh215" depart="3294.64" from="-150800557#1" to="3957136#0" departLane="best" type="veh_passenger"/>
    <trip id="veh216" depart="3309.97" from="3788308" to="360319695#0" departLane="best" type="veh_passenger" departSpeed="max"/>
    <trip id="veh217" depart="3325.29" from="-192108789#2" to="-4395858#0" departLane="best" type="veh_passenger"/>
    <trip id="veh218" depart="3340.62" from="3788308" to="-685418295#1" departLane="best" type="veh_passenger" departSpeed="max"/>
    <trip id="veh219" depart="3355.94" from="229119089" to="1322636039#0" departLane="best" type="veh_passenger" departSpeed="max"/>
    <trip id="veh220" depart="3371.26" from="13904675" to="1170418373" departLane="best" type="veh_passenger" departSpeed="max"/>
    <trip id="veh221" depart="3386.59" from="-4395994#3" to="-317183891#0" departLane="best" type="veh_passenger"/>
    <trip id="veh222" depart="3401.91" from="-3957127" to="-317183891#0" departLane="best" type="veh_passenger"/>
    <trip id="veh223" depart="3417.24" from="-3936652#3" to="-4395692#1" departLane="best" type="veh_passenger" departSpeed="max"/>
    <trip id="veh224" depart="3432.56" from="83806426#0" to="14047784" departLane="best" type="veh_passenger"/>
    <trip id="veh225" depart="3447.88" from="-55668396" to="-192108787#2" departLane="best" type="veh_passenger" departSpeed="max"/>
    <trip id="veh226" depart="3463.21" from="-3957136#3" to="-4395858#7" departLane="best" type="veh_passenger"/>
    <trip id="veh227" depart="3478.53" from="-39117800#0" to="-1103189119" departLane="best" type="veh_passenger"/>
    <trip id="veh228" depart="3493.86" from="83806426#0" to="229061163" departLane="best" type="veh_passenger"/>
    <trip id="veh229" depart="3509.18" from="38098902#0" to="-32866834#1" departLane="best" type="veh_passenger"/>
    <trip id="veh230" depart="3524.50" from="55668397" to="1340422158" departLane="best" type="veh_passenger" departSpeed="max"/>
    <trip id="veh231" depart="3539.83" from="55668404#0" to="25009776" departLane="best" type="veh_passenger"/>
    <trip id="veh232" depart="3555.15" from="-3936652#3" to="-132759854#3" departLane="best" type="veh_passenger" departSpeed="max"/>
    <trip id="veh233" depart="3570.48" from="4825365" to="112410779#1" departLane="best" type="veh_passenger" departSpeed="max"/>
    <trip id="veh234" depart="3585.80" from="160963287#2" to="-67139161#1" departLane="best" type="veh_passenger"/>
    -->
</routes>
