<additional>
    <poi id="rsu_0" x="356.66" y="860.95" color="1,0,0" layer="10"/>
    <poi id="rsu_1" x="559.64" y="1214.65" color="0,1,0" layer="10"/>
    <poi id="rsu_2" x="511.31" y="684.09" color="0,0,1" layer="10"/>
</additional>
